2024_89_CemigReconfigurationCases/1_AlimsCemig/UHSG27/UHSG27CargaBT_Dez.dss
new load.3000812914M1 bus1=RML1053525363.1.2.3.0,Phases=3,kv=0.22,kW=0.83612,pf=0.92,Vminpu=0.92,Vmaxpu=1.5,model=8,zipv=[0.5,0,0.5,1,0,0,0],daily=RES3_14,status=variable
new load.3000812919M1 bus1=RML1053524474.1.2.3.0,Phases=3,kv=0.22,kW=2.0526,pf=0.92,Vminpu=0.92,Vmaxpu=1.5,model=8,zipv=[0.5,0,0.5,1,0,0,0],daily=COM1_21,status=variable
new load.3000812920M1 bus1=RML1053524474.1.2.3.0,Phases=3,kv=0.22,kW=0.867,pf=0.92,Vminpu=0.92,Vmaxpu=1.5,model=8,zipv=[0.5,0,0.5,1,0,0,0],daily=RES4_17,status=variable
new load.3000812922M1 bus1=RML1053524488.1.0,Phases=1,kv=0.127,kW=1.93972,pf=0.92,Vminpu=0.92,Vmaxpu=1.5,model=8,zipv=[0.5,0,0.5,1,0,0,0],daily=RES4_17,status=variable
new load.3000812924M1 bus1=RML1053524453.1.2.3.0,Phases=3,kv=0.22,kW=3.0575,pf=0.92,Vminpu=0.92,Vmaxpu=1.5,model=8,zipv=[0.5,0,0.5,1,0,0,0],daily=COM3_19,status=variable
new load.3000812927M1 bus1=RML1053524355.1.2.3.0,Phases=3,kv=0.22,kW=0.26478,pf=0.92,Vminpu=0.92,Vmaxpu=1.5,model=8,zipv=[0.5,0,0.5,1,0,0,0],daily=RES2_17,status=variable
new load.3000812928M1 bus1=RML1053524369.1.2.3.0,Phases=3,kv=0.22,kW=2.25954,pf=0.92,Vminpu=0.92,Vmaxpu=1.5,model=8,zipv=[0.5,0,0.5,1,0,0,0],daily=RES5_15,status=variable
new load.3000812930M1 bus1=RML1053524306.1.2.3.0,Phases=3,kv=0.22,kW=0.33216,pf=0.92,Vminpu=0.92,Vmaxpu=1.5,model=8,zipv=[0.5,0,0.5,1,0,0,0],daily=RES2_17,status=variable
new load.3000812933M1 bus1=RML1053524278.1.0,Phases=1,kv=0.127,kW=1.04464,pf=0.92,Vminpu=0.92,Vmaxpu=1.5,model=8,zipv=[0.5,0,0.5,1,0,0,0],daily=RES2_17,status=variable
new load.3000812934M1 bus1=RML1053524243.2.3.0,Phases=2,kv=0.22,kW=0.41984,pf=0.92,Vminpu=0.92,Vmaxpu=1.5,model=8,zipv=[0.5,0,0.5,1,0,0,0],daily=RES1_16,status=variable
new load.3000812936M1 bus1=RML1053524187.1.0,Phases=1,kv=0.127,kW=0.38032,pf=0.92,Vminpu=0.92,Vmaxpu=1.5,model=8,zipv=[0.5,0,0.5,1,0,0,0],daily=RES2_17,status=variable
new load.3000812937M1 bus1=RML1053524208.2.0,Phases=1,kv=0.127,kW=0.69274,pf=0.92,Vminpu=0.92,Vmaxpu=1.5,model=8,zipv=[0.5,0,0.5,1,0,0,0],daily=RES1_16,status=variable
new load.3000812938M1 bus1=RML1053523676.3.0,Phases=1,kv=0.127,kW=0.74586,pf=0.92,Vminpu=0.92,Vmaxpu=1.5,model=8,zipv=[0.5,0,0.5,1,0,0,0],daily=RES3_14,status=variable
new load.3000812939M1 bus1=RML1053523697.2.0,Phases=1,kv=0.127,kW=0.72692,pf=0.92,Vminpu=0.92,Vmaxpu=1.5,model=8,zipv=[0.5,0,0.5,1,0,0,0],daily=RES2_17,status=variable
new load.3000812943M1 bus1=RML1053523711.2.0,Phases=1,kv=0.127,kW=0.2939,pf=0.92,Vminpu=0.92,Vmaxpu=1.5,model=8,zipv=[0.5,0,0.5,1,0,0,0],daily=RES1_16,status=variable
new load.3000812944M1 bus1=RML1053523732.3.0,Phases=1,kv=0.127,kW=0.2519,pf=0.92,Vminpu=0.92,Vmaxpu=1.5,model=8,zipv=[0.5,0,0.5,1,0,0,0],daily=RES1_16,status=variable
new load.3000812946M1 bus1=RML1053523760.1.0,Phases=1,kv=0.127,kW=0.32254,pf=0.92,Vminpu=0.92,Vmaxpu=1.5,model=8,zipv=[0.5,0,0.5,1,0,0,0],daily=RES2_17,status=variable
new load.3000812947M1 bus1=RML1053523781.2.0,Phases=1,kv=0.127,kW=0.45734,pf=0.92,Vminpu=0.92,Vmaxpu=1.5,model=8,zipv=[0.5,0,0.5,1,0,0,0],daily=RES2_17,status=variable
new load.3000812948M1 bus1=RML1053523753.1.0,Phases=1,kv=0.127,kW=0.63064,pf=0.92,Vminpu=0.92,Vmaxpu=1.5,model=8,zipv=[0.5,0,0.5,1,0,0,0],daily=RES2_17,status=variable
new load.3000812949M1 bus1=RML1053523746.1.0,Phases=1,kv=0.127,kW=0.19942,pf=0.92,Vminpu=0.92,Vmaxpu=1.5,model=8,zipv=[0.5,0,0.5,1,0,0,0],daily=RES1_16,status=variable
new load.3000812950M1 bus1=RML1053523718.2.0,Phases=1,kv=0.127,kW=0.5143,pf=0.92,Vminpu=0.92,Vmaxpu=1.5,model=8,zipv=[0.5,0,0.5,1,0,0,0],daily=RES1_16,status=variable
new load.3000812951M1 bus1=RML1053523655.2.0,Phases=1,kv=0.127,kW=0.4814,pf=0.92,Vminpu=0.92,Vmaxpu=1.5,model=8,zipv=[0.5,0,0.5,1,0,0,0],daily=RES2_17,status=variable
new load.3000812952M1 bus1=RML1053523669.2.0,Phases=1,kv=0.127,kW=0.91688,pf=0.92,Vminpu=0.92,Vmaxpu=1.5,model=8,zipv=[0.5,0,0.5,1,0,0,0],daily=RES3_14,status=variable
new load.3000812953M1 bus1=RML1053523648.1.2.0,Phases=2,kv=0.22,kW=0.65636,pf=0.92,Vminpu=0.92,Vmaxpu=1.5,model=8,zipv=[0.5,0,0.5,1,0,0,0],daily=RES4_17,status=variable
new load.3000812954M1 bus1=RML1053523361.1.2.0,Phases=2,kv=0.22,kW=0.85512,pf=0.92,Vminpu=0.92,Vmaxpu=1.5,model=8,zipv=[0.5,0,0.5,1,0,0,0],daily=RES3_14,status=variable
new load.3000812955M1 bus1=RML1053523382.1.0,Phases=1,kv=0.127,kW=0.57288,pf=0.92,Vminpu=0.92,Vmaxpu=1.5,model=8,zipv=[0.5,0,0.5,1,0,0,0],daily=RES2_17,status=variable
new load.3000812956M1 bus1=RML1053523368.2.0,Phases=1,kv=0.127,kW=0.7601,pf=0.92,Vminpu=0.92,Vmaxpu=1.5,model=8,zipv=[0.5,0,0.5,1,0,0,0],daily=RES3_14,status=variable
new load.3000812957M1 bus1=RML1053523410.3.0,Phases=1,kv=0.127,kW=0.25034,pf=0.92,Vminpu=0.92,Vmaxpu=1.5,model=8,zipv=[0.5,0,0.5,1,0,0,0],daily=RES2_17,status=variable
new load.3000812958M1 bus1=RML1053523424.2.0,Phases=1,kv=0.127,kW=0.5825,pf=0.92,Vminpu=0.92,Vmaxpu=1.5,model=8,zipv=[0.5,0,0.5,1,0,0,0],daily=RES2_17,status=variable
new load.3000812959M1 bus1=RML1053523473.3.0,Phases=1,kv=0.127,kW=0.89216,pf=0.92,Vminpu=0.92,Vmaxpu=1.5,model=8,zipv=[0.5,0,0.5,1,0,0,0],daily=RES1_16,status=variable
new load.3000812960M1 bus1=RML1053523466.1.2.0,Phases=2,kv=0.22,kW=0.62976,pf=0.92,Vminpu=0.92,Vmaxpu=1.5,model=8,zipv=[0.5,0,0.5,1,0,0,0],daily=RES1_16,status=variable
new load.3000812961M1 bus1=RML1053523452.2.3.0,Phases=2,kv=0.22,kW=0.13644,pf=0.92,Vminpu=0.92,Vmaxpu=1.5,model=8,zipv=[0.5,0,0.5,1,0,0,0],daily=RES1_16,status=variable
new load.3000812962M1 bus1=RML1053523445.1.2.3.0,Phases=3,kv=0.22,kW=0.58778,pf=0.92,Vminpu=0.92,Vmaxpu=1.5,model=8,zipv=[0.5,0,0.5,1,0,0,0],daily=RES1_16,status=variable
new load.3000812963M1 bus1=RML1053523438.3.0,Phases=1,kv=0.127,kW=1.0404,pf=0.92,Vminpu=0.92,Vmaxpu=1.5,model=8,zipv=[0.5,0,0.5,1,0,0,0],daily=RES3_14,status=variable
new load.3000812964M1 bus1=RML1053523438.3.0,Phases=1,kv=0.127,kW=0.43326,pf=0.92,Vminpu=0.92,Vmaxpu=1.5,model=8,zipv=[0.5,0,0.5,1,0,0,0],daily=RES2_17,status=variable
new load.3000812965M1 bus1=RML1053523529.2.0,Phases=1,kv=0.127,kW=0.56324,pf=0.92,Vminpu=0.92,Vmaxpu=1.5,model=8,zipv=[0.5,0,0.5,1,0,0,0],daily=RES2_17,status=variable
new load.3000812966M1 bus1=RML1053523522.1.2.0,Phases=2,kv=0.22,kW=0.4429,pf=0.92,Vminpu=0.92,Vmaxpu=1.5,model=8,zipv=[0.5,0,0.5,1,0,0,0],daily=RES2_17,status=variable
new load.3000812967M1 bus1=RML1053523501.1.2.0,Phases=2,kv=0.22,kW=0.62234,pf=0.92,Vminpu=0.92,Vmaxpu=1.5,model=8,zipv=[0.5,0,0.5,1,0,0,0],daily=RES3_14,status=variable
new load.3000812968M1 bus1=RML1053523564.2.3.0,Phases=2,kv=0.22,kW=0.06298,pf=0.92,Vminpu=0.92,Vmaxpu=1.5,model=8,zipv=[0.5,0,0.5,1,0,0,0],daily=RES1_16,status=variable
new load.3000812969M1 bus1=RML1053523557.1.0,Phases=1,kv=0.127,kW=0.4766,pf=0.92,Vminpu=0.92,Vmaxpu=1.5,model=8,zipv=[0.5,0,0.5,1,0,0,0],daily=RES2_17,status=variable
new load.3000812970M1 bus1=RML1053523550.1.0,Phases=1,kv=0.127,kW=0.5143,pf=0.92,Vminpu=0.92,Vmaxpu=1.5,model=8,zipv=[0.5,0,0.5,1,0,0,0],daily=RES1_16,status=variable
new load.3000812971M1 bus1=RML1053523641.3.0,Phases=1,kv=0.127,kW=0.43326,pf=0.92,Vminpu=0.92,Vmaxpu=1.5,model=8,zipv=[0.5,0,0.5,1,0,0,0],daily=RES2_17,status=variable
new load.3000812972M1 bus1=RML1053523620.2.0,Phases=1,kv=0.127,kW=0.65952,pf=0.92,Vminpu=0.92,Vmaxpu=1.5,model=8,zipv=[0.5,0,0.5,1,0,0,0],daily=RES2_17,status=variable
new load.3000812973M1 bus1=RML1053523599.2.0,Phases=1,kv=0.127,kW=0.58732,pf=0.92,Vminpu=0.92,Vmaxpu=1.5,model=8,zipv=[0.5,0,0.5,1,0,0,0],daily=RES2_17,status=variable
new load.3000812975M1 bus1=RML1053523606.2.0,Phases=1,kv=0.127,kW=0.40934,pf=0.92,Vminpu=0.92,Vmaxpu=1.5,model=8,zipv=[0.5,0,0.5,1,0,0,0],daily=RES1_16,status=variable
new load.3000812976M1 bus1=RML1053523613.3.0,Phases=1,kv=0.127,kW=0.51992,pf=0.92,Vminpu=0.92,Vmaxpu=1.5,model=8,zipv=[0.5,0,0.5,1,0,0,0],daily=RES2_17,status=variable
new load.3000812977M1 bus1=RML1053523627.3.0,Phases=1,kv=0.127,kW=0.14694,pf=0.92,Vminpu=0.92,Vmaxpu=1.5,model=8,zipv=[0.5,0,0.5,1,0,0,0],daily=RES1_16,status=variable
new load.3000812978M1 bus1=RML1053523634.1.0,Phases=1,kv=0.127,kW=0.59828,pf=0.92,Vminpu=0.92,Vmaxpu=1.5,model=8,zipv=[0.5,0,0.5,1,0,0,0],daily=RES1_16,status=variable
new load.3000812981M1 bus1=RML1053523571.3.0,Phases=1,kv=0.127,kW=0.93112,pf=0.92,Vminpu=0.92,Vmaxpu=1.5,model=8,zipv=[0.5,0,0.5,1,0,0,0],daily=RES3_14,status=variable
new load.3000812982M1 bus1=RML1060046784.3.0,Phases=1,kv=0.127,kW=0.7316,pf=0.92,Vminpu=0.92,Vmaxpu=1.5,model=8,zipv=[0.5,0,0.5,1,0,0,0],daily=RES3_14,status=variable
new load.3000812983M1 bus1=RML1053523585.2.0,Phases=1,kv=0.127,kW=0.46182,pf=0.92,Vminpu=0.92,Vmaxpu=1.5,model=8,zipv=[0.5,0,0.5,1,0,0,0],daily=RES1_16,status=variable
new load.3000812984M1 bus1=RML1053523508.2.3.0,Phases=2,kv=0.22,kW=0.56806,pf=0.92,Vminpu=0.92,Vmaxpu=1.5,model=8,zipv=[0.5,0,0.5,1,0,0,0],daily=RES2_17,status=variable
new load.3000812985M1 bus1=RML1053523515.1.2.0,Phases=2,kv=0.22,kW=0.91688,pf=0.92,Vminpu=0.92,Vmaxpu=1.5,model=8,zipv=[0.5,0,0.5,1,0,0,0],daily=RES3_14,status=variable
new load.3000812986M1 bus1=RML1053523536.3.0,Phases=1,kv=0.127,kW=0.64026,pf=0.92,Vminpu=0.92,Vmaxpu=1.5,model=8,zipv=[0.5,0,0.5,1,0,0,0],daily=RES1_16,status=variable
new load.3000812987M1 bus1=RML1053523459.1.0,Phases=1,kv=0.127,kW=0.43034,pf=0.92,Vminpu=0.92,Vmaxpu=1.5,model=8,zipv=[0.5,0,0.5,1,0,0,0],daily=RES1_16,status=variable
new load.3000812988M1 bus1=RML1053523480.3.0,Phases=1,kv=0.127,kW=0.46696,pf=0.92,Vminpu=0.92,Vmaxpu=1.5,model=8,zipv=[0.5,0,0.5,1,0,0,0],daily=RES2_17,status=variable
new load.3000812989M1 bus1=RML1053523417.1.2.3.0,Phases=3,kv=0.22,kW=0.9243,pf=0.92,Vminpu=0.92,Vmaxpu=1.5,model=8,zipv=[0.5,0,0.5,1,0,0,0],daily=RES2_17,status=variable
new load.3000812990M1 bus1=RML1053523403.1.0,Phases=1,kv=0.127,kW=0.61284,pf=0.92,Vminpu=0.92,Vmaxpu=1.5,model=8,zipv=[0.5,0,0.5,1,0,0,0],daily=RES3_14,status=variable
new load.3000812991M1 bus1=RML1053523375.3.0,Phases=1,kv=0.127,kW=0.71374,pf=0.92,Vminpu=0.92,Vmaxpu=1.5,model=8,zipv=[0.5,0,0.5,1,0,0,0],daily=RES1_16,status=variable
new load.3000812994M1 bus1=RML1053523347.1.0,Phases=1,kv=0.127,kW=0.50066,pf=0.92,Vminpu=0.92,Vmaxpu=1.5,model=8,zipv=[0.5,0,0.5,1,0,0,0],daily=RES2_17,status=variable
new load.3000812995M1 bus1=RML1061045893.1.2.0,Phases=2,kv=0.22,kW=1.33724,pf=0.92,Vminpu=0.92,Vmaxpu=1.5,model=8,zipv=[0.5,0,0.5,1,0,0,0],daily=RES4_17,status=variable
new load.3000812999M1 bus1=RML1053524215.2.3.0,Phases=2,kv=0.22,kW=0.7977,pf=0.92,Vminpu=0.92,Vmaxpu=1.5,model=8,zipv=[0.5,0,0.5,1,0,0,0],daily=RES1_16,status=variable
new load.3000813000M1 bus1=RML1053524201.2.0,Phases=1,kv=0.127,kW=1.00238,pf=0.92,Vminpu=0.92,Vmaxpu=1.5,model=8,zipv=[0.5,0,0.5,1,0,0,0],daily=RES3_14,status=variable
new load.3000813001M1 bus1=RML1053524194.1.2.3.0,Phases=3,kv=0.22,kW=0.0105,pf=0.92,Vminpu=0.92,Vmaxpu=1.5,model=8,zipv=[0.5,0,0.5,1,0,0,0],daily=RES1_16,status=variable
new load.3000813002M1 bus1=RML1053524180.1.2.0,Phases=2,kv=0.22,kW=0.75536,pf=0.92,Vminpu=0.92,Vmaxpu=1.5,model=8,zipv=[0.5,0,0.5,1,0,0,0],daily=RES3_14,status=variable
new load.3000813003M1 bus1=RML1053524166.1.0,Phases=1,kv=0.127,kW=0.62582,pf=0.92,Vminpu=0.92,Vmaxpu=1.5,model=8,zipv=[0.5,0,0.5,1,0,0,0],daily=RES2_17,status=variable
new load.3000813004M1 bus1=RML1053524152.1.2.0,Phases=2,kv=0.22,kW=0.96986,pf=0.92,Vminpu=0.92,Vmaxpu=1.5,model=8,zipv=[0.5,0,0.5,1,0,0,0],daily=RES4_17,status=variable
new load.3000813005M1 bus1=RML1053524159.1.2.0,Phases=2,kv=0.22,kW=0.55362,pf=0.92,Vminpu=0.92,Vmaxpu=1.5,model=8,zipv=[0.5,0,0.5,1,0,0,0],daily=RES2_17,status=variable
new load.3000813006M1 bus1=RML1053524159.1.2.0,Phases=2,kv=0.22,kW=0.5488,pf=0.92,Vminpu=0.92,Vmaxpu=1.5,model=8,zipv=[0.5,0,0.5,1,0,0,0],daily=RES2_17,status=variable
new load.3000813007M1 bus1=RML1053522080.2.0,Phases=1,kv=0.12,kW=0.92366,pf=0.92,Vminpu=0.92,Vmaxpu=1.5,model=8,zipv=[0.5,0,0.5,1,0,0,0],daily=RES1_16,status=variable
new load.3000813008M1 bus1=RML1053522052.1.2.0,Phases=2,kv=0.24,kW=0.60658,pf=0.92,Vminpu=0.92,Vmaxpu=1.5,model=8,zipv=[0.5,0,0.5,1,0,0,0],daily=RES2_17,status=variable
new load.3000813009M1 bus1=RML1053522059.2.0,Phases=1,kv=0.12,kW=0.95514,pf=0.92,Vminpu=0.92,Vmaxpu=1.5,model=8,zipv=[0.5,0,0.5,1,0,0,0],daily=RES1_16,status=variable
new load.3000813010M1 bus1=RML1053522066.1.0,Phases=1,kv=0.12,kW=0.88098,pf=0.92,Vminpu=0.92,Vmaxpu=1.5,model=8,zipv=[0.5,0,0.5,1,0,0,0],daily=RES2_17,status=variable
new load.3000813011M1 bus1=RML1053522045.1.0,Phases=1,kv=0.12,kW=0.06298,pf=0.92,Vminpu=0.92,Vmaxpu=1.5,model=8,zipv=[0.5,0,0.5,1,0,0,0],daily=RES1_16,status=variable
new load.3000813012M1 bus1=RML1053522024.2.0,Phases=1,kv=0.12,kW=1.00238,pf=0.92,Vminpu=0.92,Vmaxpu=1.5,model=8,zipv=[0.5,0,0.5,1,0,0,0],daily=RES3_14,status=variable
new load.3000813013M1 bus1=RML1053521989.1.0,Phases=1,kv=0.12,kW=0.36106,pf=0.92,Vminpu=0.92,Vmaxpu=1.5,model=8,zipv=[0.5,0,0.5,1,0,0,0],daily=RES2_17,status=variable
new load.3000813014M1 bus1=RML1053521996.1.0,Phases=1,kv=0.12,kW=0.61926,pf=0.92,Vminpu=0.92,Vmaxpu=1.5,model=8,zipv=[0.5,0,0.5,1,0,0,0],daily=RES1_16,status=variable
new load.3000813015M1 bus1=RML1053522003.1.0,Phases=1,kv=0.12,kW=0.07222,pf=0.92,Vminpu=0.92,Vmaxpu=1.5,model=8,zipv=[0.5,0,0.5,1,0,0,0],daily=RES2_17,status=variable
new load.3000813016M1 bus1=RML1053521933.1.2.0,Phases=2,kv=0.24,kW=0.26958,pf=0.92,Vminpu=0.92,Vmaxpu=1.5,model=8,zipv=[0.5,0,0.5,1,0,0,0],daily=RES2_17,status=variable
new load.3000813017M1 bus1=RML1053521961.1.0,Phases=1,kv=0.12,kW=0.62582,pf=0.92,Vminpu=0.92,Vmaxpu=1.5,model=8,zipv=[0.5,0,0.5,1,0,0,0],daily=RES2_17,status=variable
new load.3000813018M1 bus1=RML1053521982.2.0,Phases=1,kv=0.12,kW=0.0105,pf=0.92,Vminpu=0.92,Vmaxpu=1.5,model=8,zipv=[0.5,0,0.5,1,0,0,0],daily=RES1_16,status=variable
new load.3000813019M1 bus1=RML1053521975.2.0,Phases=1,kv=0.12,kW=0.38994,pf=0.92,Vminpu=0.92,Vmaxpu=1.5,model=8,zipv=[0.5,0,0.5,1,0,0,0],daily=RES2_17,status=variable
new load.3000813020M1 bus1=RML1053522010.2.0,Phases=1,kv=0.12,kW=0.88168,pf=0.92,Vminpu=0.92,Vmaxpu=1.5,model=8,zipv=[0.5,0,0.5,1,0,0,0],daily=RES1_16,status=variable
new load.3000813021M1 bus1=RML1053522017.2.0,Phases=1,kv=0.12,kW=0.50066,pf=0.92,Vminpu=0.92,Vmaxpu=1.5,model=8,zipv=[0.5,0,0.5,1,0,0,0],daily=RES2_17,status=variable
new load.3000813023M1 bus1=RML1053522038.1.0,Phases=1,kv=0.12,kW=0.70324,pf=0.92,Vminpu=0.92,Vmaxpu=1.5,model=8,zipv=[0.5,0,0.5,1,0,0,0],daily=RES1_16,status=variable
new load.3000813025M1 bus1=RML1053522087.1.2.0,Phases=2,kv=0.24,kW=1.04514,pf=0.92,Vminpu=0.92,Vmaxpu=1.5,model=8,zipv=[0.5,0,0.5,1,0,0,0],daily=RES3_14,status=variable
new load.3000813026M1 bus1=RML1053524145.1.0,Phases=1,kv=0.127,kW=0.43808,pf=0.92,Vminpu=0.92,Vmaxpu=1.5,model=8,zipv=[0.5,0,0.5,1,0,0,0],daily=RES2_17,status=variable
new load.3000813028M1 bus1=RML1053524250.1.2.0,Phases=2,kv=0.22,kW=0.48456,pf=0.92,Vminpu=0.92,Vmaxpu=1.5,model=8,zipv=[0.5,0,0.5,1,0,0,0],daily=RES3_14,status=variable
new load.3000813030M1 bus1=RML1053524271.1.2.3.0,Phases=3,kv=0.22,kW=1.07364,pf=0.92,Vminpu=0.92,Vmaxpu=1.5,model=8,zipv=[0.5,0,0.5,1,0,0,0],daily=RES3_14,status=variable
new load.3000813031M1 bus1=RML1053523914.2.0,Phases=1,kv=0.127,kW=2.43334,pf=0.92,Vminpu=0.92,Vmaxpu=1.5,model=8,zipv=[0.5,0,0.5,1,0,0,0],daily=RES6_12,status=variable
new load.3000813032M1 bus1=RML1053523921.3.0,Phases=1,kv=0.127,kW=0.1755,pf=0.92,Vminpu=0.92,Vmaxpu=1.5,model=8,zipv=[0.5,0,0.5,1,0,0,0],daily=COM1_21,status=variable
new load.3000813033M1 bus1=RML1053523928.2.0,Phases=1,kv=0.127,kW=0.90504,pf=0.92,Vminpu=0.92,Vmaxpu=1.5,model=8,zipv=[0.5,0,0.5,1,0,0,0],daily=RES2_17,status=variable
new load.3000813035M1 bus1=RML1053523907.1.2.0,Phases=2,kv=0.22,kW=0.18476,pf=0.92,Vminpu=0.92,Vmaxpu=1.5,model=8,zipv=[0.5,0,0.5,1,0,0,0],daily=COM3_19,status=variable
new load.3000813036M1 bus1=RML1053524019.3.0,Phases=1,kv=0.127,kW=0.97726,pf=0.92,Vminpu=0.92,Vmaxpu=1.5,model=8,zipv=[0.5,0,0.5,1,0,0,0],daily=RES2_17,status=variable
new load.3000813038M1 bus1=RML1053521849.2.0,Phases=1,kv=0.127,kW=0.72422,pf=0.92,Vminpu=0.92,Vmaxpu=1.5,model=8,zipv=[0.5,0,0.5,1,0,0,0],daily=RES1_16,status=variable
new load.3000813039M1 bus1=RML1060967560.1.0,Phases=1,kv=0.127,kW=0.85018,pf=0.92,Vminpu=0.92,Vmaxpu=1.5,model=8,zipv=[0.5,0,0.5,1,0,0,0],daily=RES1_16,status=variable
new load.3000813040M1 bus1=RML1053521877.3.0,Phases=1,kv=0.127,kW=0.32254,pf=0.92,Vminpu=0.92,Vmaxpu=1.5,model=8,zipv=[0.5,0,0.5,1,0,0,0],daily=RES2_17,status=variable
new load.3000813041M1 bus1=RML1053521842.1.2.3.0,Phases=3,kv=0.22,kW=0.4477,pf=0.92,Vminpu=0.92,Vmaxpu=1.5,model=8,zipv=[0.5,0,0.5,1,0,0,0],daily=RES2_17,status=variable
new load.3000813042M1 bus1=RML1053521821.1.0,Phases=1,kv=0.127,kW=0.27922,pf=0.92,Vminpu=0.92,Vmaxpu=1.5,model=8,zipv=[0.5,0,0.5,1,0,0,0],daily=RES2_17,status=variable
new load.3000813043M1 bus1=RML1053521772.2.0,Phases=1,kv=0.127,kW=0.48282,pf=0.92,Vminpu=0.92,Vmaxpu=1.5,model=8,zipv=[0.5,0,0.5,1,0,0,0],daily=RES1_16,status=variable
new load.3000813044M1 bus1=RML1053521793.1.0,Phases=1,kv=0.127,kW=0.41984,pf=0.92,Vminpu=0.92,Vmaxpu=1.5,model=8,zipv=[0.5,0,0.5,1,0,0,0],daily=RES1_16,status=variable
new load.3000813045M1 bus1=RML1053521800.2.0,Phases=1,kv=0.127,kW=0.62102,pf=0.92,Vminpu=0.92,Vmaxpu=1.5,model=8,zipv=[0.5,0,0.5,1,0,0,0],daily=RES2_17,status=variable
new load.3000813047M1 bus1=RML1053521744.1.0,Phases=1,kv=0.127,kW=0.49332,pf=0.92,Vminpu=0.92,Vmaxpu=1.5,model=8,zipv=[0.5,0,0.5,1,0,0,0],daily=RES1_16,status=variable
new load.3000813048M1 bus1=RML1053521744.1.0,Phases=1,kv=0.127,kW=0.5458,pf=0.92,Vminpu=0.92,Vmaxpu=1.5,model=8,zipv=[0.5,0,0.5,1,0,0,0],daily=RES1_16,status=variable
new load.3000813050M1 bus1=RML1053521716.2.0,Phases=1,kv=0.127,kW=0.56324,pf=0.92,Vminpu=0.92,Vmaxpu=1.5,model=8,zipv=[0.5,0,0.5,1,0,0,0],daily=RES2_17,status=variable
new load.3000813052M1 bus1=RML1053521695.2.0,Phases=1,kv=0.127,kW=0.45134,pf=0.92,Vminpu=0.92,Vmaxpu=1.5,model=8,zipv=[0.5,0,0.5,1,0,0,0],daily=RES1_16,status=variable
new load.3000813053M1 bus1=RML1053521660.1.0,Phases=1,kv=0.127,kW=0.77988,pf=0.92,Vminpu=0.92,Vmaxpu=1.5,model=8,zipv=[0.5,0,0.5,1,0,0,0],daily=RES2_17,status=variable
new load.3000813054M1 bus1=RML1053521667.1.0,Phases=1,kv=0.127,kW=0.08396,pf=0.92,Vminpu=0.92,Vmaxpu=1.5,model=8,zipv=[0.5,0,0.5,1,0,0,0],daily=RES1_16,status=variable
new load.3000813055M1 bus1=RML1053521590.1.3.0,Phases=2,kv=0.22,kW=0.39956,pf=0.92,Vminpu=0.92,Vmaxpu=1.5,model=8,zipv=[0.5,0,0.5,1,0,0,0],daily=RES2_17,status=variable
new load.3000813056M1 bus1=RML1053521604.1.0,Phases=1,kv=0.127,kW=0.35686,pf=0.92,Vminpu=0.92,Vmaxpu=1.5,model=8,zipv=[0.5,0,0.5,1,0,0,0],daily=RES1_16,status=variable
new load.3000813057M1 bus1=RML1053521653.3.0,Phases=1,kv=0.127,kW=0.4092,pf=0.92,Vminpu=0.92,Vmaxpu=1.5,model=8,zipv=[0.5,0,0.5,1,0,0,0],daily=RES2_17,status=variable
new load.3000813058M1 bus1=RML1053521618.2.0,Phases=1,kv=0.127,kW=0.5488,pf=0.92,Vminpu=0.92,Vmaxpu=1.5,model=8,zipv=[0.5,0,0.5,1,0,0,0],daily=RES2_17,status=variable
new load.3000813059M1 bus1=RML1053521632.3.0,Phases=1,kv=0.127,kW=0.47232,pf=0.92,Vminpu=0.92,Vmaxpu=1.5,model=8,zipv=[0.5,0,0.5,1,0,0,0],daily=RES1_16,status=variable
new load.3000813060M1 bus1=RML1053521646.1.2.0,Phases=2,kv=0.22,kW=0.54398,pf=0.92,Vminpu=0.92,Vmaxpu=1.5,model=8,zipv=[0.5,0,0.5,1,0,0,0],daily=RES2_17,status=variable
new load.3000813061M1 bus1=RML1053520379.2.0,Phases=1,kv=0.12,kW=0.69274,pf=0.92,Vminpu=0.92,Vmaxpu=1.5,model=8,zipv=[0.5,0,0.5,1,0,0,0],daily=RES1_16,status=variable
new load.3000813062M1 bus1=RML1053520400.1.2.0,Phases=2,kv=0.22,kW=0.87134,pf=0.92,Vminpu=0.92,Vmaxpu=1.5,model=8,zipv=[0.5,0,0.5,1,0,0,0],daily=RES2_17,status=variable
new load.3000813063M1 bus1=RML1053521205.1.0,Phases=1,kv=0.12,kW=0.10496,pf=0.92,Vminpu=0.92,Vmaxpu=1.5,model=8,zipv=[0.5,0,0.5,1,0,0,0],daily=RES1_16,status=variable
new load.3000813064M1 bus1=RML1053521212.2.0,Phases=1,kv=0.12,kW=0.61926,pf=0.92,Vminpu=0.92,Vmaxpu=1.5,model=8,zipv=[0.5,0,0.5,1,0,0,0],daily=RES1_16,status=variable
new load.3000813065M1 bus1=RML1053521226.1.0,Phases=1,kv=0.12,kW=0.48622,pf=0.92,Vminpu=0.92,Vmaxpu=1.5,model=8,zipv=[0.5,0,0.5,1,0,0,0],daily=RES2_17,status=variable
new load.3000813067M1 bus1=RML1053521240.1.2.0,Phases=2,kv=0.24,kW=0.4477,pf=0.92,Vminpu=0.92,Vmaxpu=1.5,model=8,zipv=[0.5,0,0.5,1,0,0,0],daily=RES2_17,status=variable
new load.3000813069M1 bus1=RML1053521345.1.0,Phases=1,kv=0.12,kW=0.50066,pf=0.92,Vminpu=0.92,Vmaxpu=1.5,model=8,zipv=[0.5,0,0.5,1,0,0,0],daily=RES2_17,status=variable
new load.3000813070M1 bus1=RML1053521394.1.0,Phases=1,kv=0.12,kW=0.55362,pf=0.92,Vminpu=0.92,Vmaxpu=1.5,model=8,zipv=[0.5,0,0.5,1,0,0,0],daily=RES2_17,status=variable
new load.3000813072M1 bus1=RML1053521415.1.0,Phases=1,kv=0.12,kW=0.751,pf=0.92,Vminpu=0.92,Vmaxpu=1.5,model=8,zipv=[0.5,0,0.5,1,0,0,0],daily=RES2_17,status=variable
new load.3000813073M1 bus1=RML1053521485.1.0,Phases=1,kv=0.12,kW=0.77024,pf=0.92,Vminpu=0.92,Vmaxpu=1.5,model=8,zipv=[0.5,0,0.5,1,0,0,0],daily=RES2_17,status=variable
new load.3000813074M1 bus1=RML1053521492.1.0,Phases=1,kv=0.12,kW=0.4814,pf=0.92,Vminpu=0.92,Vmaxpu=1.5,model=8,zipv=[0.5,0,0.5,1,0,0,0],daily=RES2_17,status=variable
new load.3000813075M1 bus1=RML1053521569.1.2.0,Phases=2,kv=0.24,kW=1.0784,pf=0.92,Vminpu=0.92,Vmaxpu=1.5,model=8,zipv=[0.5,0,0.5,1,0,0,0],daily=RES3_14,status=variable
new load.3000813076M1 bus1=RML1053521499.1.0,Phases=1,kv=0.12,kW=0.56806,pf=0.92,Vminpu=0.92,Vmaxpu=1.5,model=8,zipv=[0.5,0,0.5,1,0,0,0],daily=RES2_17,status=variable
new load.3000813078M1 bus1=RML1053521464.1.0,Phases=1,kv=0.12,kW=0.93416,pf=0.92,Vminpu=0.92,Vmaxpu=1.5,model=8,zipv=[0.5,0,0.5,1,0,0,0],daily=RES1_16,status=variable
new load.3000813079M1 bus1=RML1053521401.1.2.0,Phases=2,kv=0.24,kW=0.24418,pf=0.92,Vminpu=0.92,Vmaxpu=1.5,model=8,zipv=[0.5,0,0.5,1,0,0,0],daily=COM1_21,status=variable
new load.3000813080M1 bus1=RML1053521422.2.0,Phases=1,kv=0.12,kW=0.09446,pf=0.92,Vminpu=0.92,Vmaxpu=1.5,model=8,zipv=[0.5,0,0.5,1,0,0,0],daily=RES1_16,status=variable
new load.3000813081M1 bus1=RML1053521380.2.0,Phases=1,kv=0.12,kW=0.751,pf=0.92,Vminpu=0.92,Vmaxpu=1.5,model=8,zipv=[0.5,0,0.5,1,0,0,0],daily=RES2_17,status=variable
new load.3000813082M1 bus1=RML1053521338.2.0,Phases=1,kv=0.12,kW=0.28884,pf=0.92,Vminpu=0.92,Vmaxpu=1.5,model=8,zipv=[0.5,0,0.5,1,0,0,0],daily=RES2_17,status=variable
new load.3000813084M1 bus1=RML1053521268.1.0,Phases=1,kv=0.12,kW=0.04332,pf=0.92,Vminpu=0.92,Vmaxpu=1.5,model=8,zipv=[0.5,0,0.5,1,0,0,0],daily=RES2_17,status=variable
new load.3000813085M1 bus1=RML1053521436.1.0,Phases=1,kv=0.12,kW=0.31488,pf=0.92,Vminpu=0.92,Vmaxpu=1.5,model=8,zipv=[0.5,0,0.5,1,0,0,0],daily=RES1_16,status=variable
new load.3000813086M1 bus1=RML1053521247.2.0,Phases=1,kv=0.12,kW=0.5151,pf=0.92,Vminpu=0.92,Vmaxpu=1.5,model=8,zipv=[0.5,0,0.5,1,0,0,0],daily=RES2_17,status=variable
new load.3000813087M1 bus1=RML1053521275.1.2.0,Phases=2,kv=0.24,kW=0.5458,pf=0.92,Vminpu=0.92,Vmaxpu=1.5,model=8,zipv=[0.5,0,0.5,1,0,0,0],daily=RES1_16,status=variable
new load.3000813088M1 bus1=RML1053521282.2.0,Phases=1,kv=0.12,kW=0.15886,pf=0.92,Vminpu=0.92,Vmaxpu=1.5,model=8,zipv=[0.5,0,0.5,1,0,0,0],daily=RES2_17,status=variable
new load.3000813090M1 bus1=RML1053521331.2.0,Phases=1,kv=0.12,kW=0.43808,pf=0.92,Vminpu=0.92,Vmaxpu=1.5,model=8,zipv=[0.5,0,0.5,1,0,0,0],daily=RES2_17,status=variable
new load.3000813091M1 bus1=RML1053521317.1.0,Phases=1,kv=0.12,kW=0.57768,pf=0.92,Vminpu=0.92,Vmaxpu=1.5,model=8,zipv=[0.5,0,0.5,1,0,0,0],daily=RES2_17,status=variable
new load.3000813092M1 bus1=RML1053521303.2.0,Phases=1,kv=0.12,kW=0.26478,pf=0.92,Vminpu=0.92,Vmaxpu=1.5,model=8,zipv=[0.5,0,0.5,1,0,0,0],daily=RES2_17,status=variable
new load.3000813093M1 bus1=RML1053521310.1.0,Phases=1,kv=0.12,kW=0.59828,pf=0.92,Vminpu=0.92,Vmaxpu=1.5,model=8,zipv=[0.5,0,0.5,1,0,0,0],daily=RES1_16,status=variable
new load.3000813095M1 bus1=RML1054939048.2.0,Phases=1,kv=0.12,kW=0.39956,pf=0.92,Vminpu=0.92,Vmaxpu=1.5,model=8,zipv=[0.5,0,0.5,1,0,0,0],daily=RES2_17,status=variable
new load.3000813096M1 bus1=RML1053521219.1.0,Phases=1,kv=0.12,kW=0.62976,pf=0.92,Vminpu=0.92,Vmaxpu=1.5,model=8,zipv=[0.5,0,0.5,1,0,0,0],daily=RES1_16,status=variable
new load.3000813097M1 bus1=RML1053520386.1.0,Phases=1,kv=0.12,kW=0.48622,pf=0.92,Vminpu=0.92,Vmaxpu=1.5,model=8,zipv=[0.5,0,0.5,1,0,0,0],daily=RES2_17,status=variable
new load.3000813098M1 bus1=RML1053520386.1.0,Phases=1,kv=0.12,kW=0.47232,pf=0.92,Vminpu=0.92,Vmaxpu=1.5,model=8,zipv=[0.5,0,0.5,1,0,0,0],daily=RES1_16,status=variable
new load.3000813099M1 bus1=RML1053520372.2.0,Phases=1,kv=0.127,kW=0.45134,pf=0.92,Vminpu=0.92,Vmaxpu=1.5,model=8,zipv=[0.5,0,0.5,1,0,0,0],daily=RES1_16,status=variable
new load.3000813100M1 bus1=RML1053521639.1.3.0,Phases=2,kv=0.22,kW=0.97244,pf=0.92,Vminpu=0.92,Vmaxpu=1.5,model=8,zipv=[0.5,0,0.5,1,0,0,0],daily=RES2_17,status=variable
new load.3000813101M1 bus1=RML1053521625.1.0,Phases=1,kv=0.127,kW=0.7895,pf=0.92,Vminpu=0.92,Vmaxpu=1.5,model=8,zipv=[0.5,0,0.5,1,0,0,0],daily=RES2_17,status=variable
new load.3000813103M1 bus1=RML1053521674.1.2.0,Phases=2,kv=0.22,kW=0.3563,pf=0.92,Vminpu=0.92,Vmaxpu=1.5,model=8,zipv=[0.5,0,0.5,1,0,0,0],daily=RES3_14,status=variable
new load.3000813104M1 bus1=RML1053521681.2.0,Phases=1,kv=0.127,kW=0.41882,pf=0.92,Vminpu=0.92,Vmaxpu=1.5,model=8,zipv=[0.5,0,0.5,1,0,0,0],daily=RES2_17,status=variable
new load.3000813106M1 bus1=RML1053521702.3.0,Phases=1,kv=0.127,kW=0.67174,pf=0.92,Vminpu=0.92,Vmaxpu=1.5,model=8,zipv=[0.5,0,0.5,1,0,0,0],daily=RES1_16,status=variable
new load.3000813108M1 bus1=RML1053521737.2.0,Phases=1,kv=0.127,kW=0.70766,pf=0.92,Vminpu=0.92,Vmaxpu=1.5,model=8,zipv=[0.5,0,0.5,1,0,0,0],daily=RES2_17,status=variable
new load.3000813109M1 bus1=RML1053521758.2.0,Phases=1,kv=0.127,kW=0.81358,pf=0.92,Vminpu=0.92,Vmaxpu=1.5,model=8,zipv=[0.5,0,0.5,1,0,0,0],daily=RES2_17,status=variable
new load.3000813110M1 bus1=RML1053521814.1.2.0,Phases=2,kv=0.22,kW=0.60658,pf=0.92,Vminpu=0.92,Vmaxpu=1.5,model=8,zipv=[0.5,0,0.5,1,0,0,0],daily=RES2_17,status=variable
new load.3000813111M1 bus1=RML1053521807.3.0,Phases=1,kv=0.127,kW=0.55844,pf=0.92,Vminpu=0.92,Vmaxpu=1.5,model=8,zipv=[0.5,0,0.5,1,0,0,0],daily=RES2_17,status=variable
new load.3000813112M1 bus1=RML1053521786.3.0,Phases=1,kv=0.127,kW=0.8187,pf=0.92,Vminpu=0.92,Vmaxpu=1.5,model=8,zipv=[0.5,0,0.5,1,0,0,0],daily=RES1_16,status=variable
new load.3000813113M1 bus1=RML1053521779.3.0,Phases=1,kv=0.127,kW=0.52954,pf=0.92,Vminpu=0.92,Vmaxpu=1.5,model=8,zipv=[0.5,0,0.5,1,0,0,0],daily=RES2_17,status=variable
new load.3000813114M1 bus1=RML1053521828.2.0,Phases=1,kv=0.127,kW=0.1396,pf=0.92,Vminpu=0.92,Vmaxpu=1.5,model=8,zipv=[0.5,0,0.5,1,0,0,0],daily=RES2_17,status=variable
new load.3000813115M1 bus1=RML1053521835.3.0,Phases=1,kv=0.127,kW=1.734,pf=0.92,Vminpu=0.92,Vmaxpu=1.5,model=8,zipv=[0.5,0,0.5,1,0,0,0],daily=RES4_17,status=variable
new load.3000813116M1 bus1=RML1053521884.2.0,Phases=1,kv=0.127,kW=0.80286,pf=0.92,Vminpu=0.92,Vmaxpu=1.5,model=8,zipv=[0.5,0,0.5,1,0,0,0],daily=RES3_14,status=variable
new load.3000813117M1 bus1=RML1053521856.1.0,Phases=1,kv=0.127,kW=0.7977,pf=0.92,Vminpu=0.92,Vmaxpu=1.5,model=8,zipv=[0.5,0,0.5,1,0,0,0],daily=RES1_16,status=variable
new load.3000813118M1 bus1=RML1053521919.3.0,Phases=1,kv=0.127,kW=0.58778,pf=0.92,Vminpu=0.92,Vmaxpu=1.5,model=8,zipv=[0.5,0,0.5,1,0,0,0],daily=RES1_16,status=variable
new load.3000813119M1 bus1=RML1053521912.1.0,Phases=1,kv=0.127,kW=0.21182,pf=0.92,Vminpu=0.92,Vmaxpu=1.5,model=8,zipv=[0.5,0,0.5,1,0,0,0],daily=RES2_17,status=variable
new load.3000813121M1 bus1=RML1053521891.1.3.0,Phases=2,kv=0.22,kW=0.49104,pf=0.92,Vminpu=0.92,Vmaxpu=1.5,model=8,zipv=[0.5,0,0.5,1,0,0,0],daily=RES2_17,status=variable
new load.3000813122M1 bus1=RML1053521688.3.0,Phases=1,kv=0.127,kW=0.67174,pf=0.92,Vminpu=0.92,Vmaxpu=1.5,model=8,zipv=[0.5,0,0.5,1,0,0,0],daily=RES1_16,status=variable
new load.3000813123M1 bus1=RML1053522913.2.3.0,Phases=2,kv=0.22,kW=0.67396,pf=0.92,Vminpu=0.92,Vmaxpu=1.5,model=8,zipv=[0.5,0,0.5,1,0,0,0],daily=RES2_17,status=variable
new load.3000813124M1 bus1=RML1053522885.2.3.0,Phases=2,kv=0.22,kW=0.70766,pf=0.92,Vminpu=0.92,Vmaxpu=1.5,model=8,zipv=[0.5,0,0.5,1,0,0,0],daily=RES2_17,status=variable
new load.3000813125M1 bus1=RML1053522857.1.2.3.0,Phases=3,kv=0.22,kW=0.5151,pf=0.92,Vminpu=0.92,Vmaxpu=1.5,model=8,zipv=[0.5,0,0.5,1,0,0,0],daily=RES2_17,status=variable
new load.3000813126M1 bus1=RML1053522829.1.2.0,Phases=2,kv=0.22,kW=0.38512,pf=0.92,Vminpu=0.92,Vmaxpu=1.5,model=8,zipv=[0.5,0,0.5,1,0,0,0],daily=RES2_17,status=variable
new load.3000813129M1 bus1=RML1053522801.1.0,Phases=1,kv=0.127,kW=0.56324,pf=0.92,Vminpu=0.92,Vmaxpu=1.5,model=8,zipv=[0.5,0,0.5,1,0,0,0],daily=RES2_17,status=variable
new load.3000813130M1 bus1=RML1053522808.2.0,Phases=1,kv=0.127,kW=0.67174,pf=0.92,Vminpu=0.92,Vmaxpu=1.5,model=8,zipv=[0.5,0,0.5,1,0,0,0],daily=RES1_16,status=variable
new load.3000813131M1 bus1=RML1053522766.1.0,Phases=1,kv=0.127,kW=0.43808,pf=0.92,Vminpu=0.92,Vmaxpu=1.5,model=8,zipv=[0.5,0,0.5,1,0,0,0],daily=RES2_17,status=variable
new load.3000813133M1 bus1=RML1053522787.1.2.3.0,Phases=3,kv=0.22,kW=0.53918,pf=0.92,Vminpu=0.92,Vmaxpu=1.5,model=8,zipv=[0.5,0,0.5,1,0,0,0],daily=RES2_17,status=variable
new load.3000813134M1 bus1=RML1053522220.2.0,Phases=1,kv=0.127,kW=0.70766,pf=0.92,Vminpu=0.92,Vmaxpu=1.5,model=8,zipv=[0.5,0,0.5,1,0,0,0],daily=RES2_17,status=variable
new load.3000813136M1 bus1=RML1053522283.2.0,Phases=1,kv=0.127,kW=0.85036,pf=0.92,Vminpu=0.92,Vmaxpu=1.5,model=8,zipv=[0.5,0,0.5,1,0,0,0],daily=RES3_14,status=variable
new load.3000813137M1 bus1=RML1053522290.1.0,Phases=1,kv=0.127,kW=0.7895,pf=0.92,Vminpu=0.92,Vmaxpu=1.5,model=8,zipv=[0.5,0,0.5,1,0,0,0],daily=RES2_17,status=variable
new load.3000813138M1 bus1=RML1053522297.1.2.0,Phases=2,kv=0.22,kW=0.63546,pf=0.92,Vminpu=0.92,Vmaxpu=1.5,model=8,zipv=[0.5,0,0.5,1,0,0,0],daily=RES2_17,status=variable
new load.3000813140M1 bus1=RML1053522311.1.0,Phases=1,kv=0.127,kW=0.83764,pf=0.92,Vminpu=0.92,Vmaxpu=1.5,model=8,zipv=[0.5,0,0.5,1,0,0,0],daily=RES2_17,status=variable
new load.3000813142M1 bus1=RML1053522367.1.0,Phases=1,kv=0.127,kW=0.31354,pf=0.92,Vminpu=0.92,Vmaxpu=1.5,model=8,zipv=[0.5,0,0.5,1,0,0,0],daily=RES3_14,status=variable
new load.3000813143M1 bus1=RML1053522780.3.0,Phases=1,kv=0.127,kW=1.0974,pf=0.92,Vminpu=0.92,Vmaxpu=1.5,model=8,zipv=[0.5,0,0.5,1,0,0,0],daily=RES3_14,status=variable
new load.3000813144M1 bus1=RML1053522759.3.0,Phases=1,kv=0.127,kW=0.38994,pf=0.92,Vminpu=0.92,Vmaxpu=1.5,model=8,zipv=[0.5,0,0.5,1,0,0,0],daily=RES2_17,status=variable
new load.3000813145M1 bus1=RML1053522794.3.0,Phases=1,kv=0.127,kW=0.50548,pf=0.92,Vminpu=0.92,Vmaxpu=1.5,model=8,zipv=[0.5,0,0.5,1,0,0,0],daily=RES2_17,status=variable
new load.3000813146M1 bus1=RML1053522843.3.0,Phases=1,kv=0.127,kW=0.5458,pf=0.92,Vminpu=0.92,Vmaxpu=1.5,model=8,zipv=[0.5,0,0.5,1,0,0,0],daily=RES1_16,status=variable
new load.3000813147M1 bus1=RML1053522822.1.0,Phases=1,kv=0.127,kW=0.53208,pf=0.92,Vminpu=0.92,Vmaxpu=1.5,model=8,zipv=[0.5,0,0.5,1,0,0,0],daily=RES3_14,status=variable
new load.3000813148M1 bus1=RML1053522871.1.2.0,Phases=2,kv=0.22,kW=0.31488,pf=0.92,Vminpu=0.92,Vmaxpu=1.5,model=8,zipv=[0.5,0,0.5,1,0,0,0],daily=RES1_16,status=variable
new load.3000813149M1 bus1=RML1053522878.2.0,Phases=1,kv=0.127,kW=0.61926,pf=0.92,Vminpu=0.92,Vmaxpu=1.5,model=8,zipv=[0.5,0,0.5,1,0,0,0],daily=RES1_16,status=variable
new load.3000813150M1 bus1=RML1058908971.1.0,Phases=1,kv=0.127,kW=0.23108,pf=0.92,Vminpu=0.92,Vmaxpu=1.5,model=8,zipv=[0.5,0,0.5,1,0,0,0],daily=RES2_17,status=variable
new load.3000813151M1 bus1=RML1053522899.1.2.3.0,Phases=3,kv=0.22,kW=0.94836,pf=0.92,Vminpu=0.92,Vmaxpu=1.5,model=8,zipv=[0.5,0,0.5,1,0,0,0],daily=RES2_17,status=variable
new load.3000813153M1 bus1=RML1053522626.2.0,Phases=1,kv=0.127,kW=0.50548,pf=0.92,Vminpu=0.92,Vmaxpu=1.5,model=8,zipv=[0.5,0,0.5,1,0,0,0],daily=RES2_17,status=variable
new load.3000813155M1 bus1=RML1053522633.2.0,Phases=1,kv=0.127,kW=0.06298,pf=0.92,Vminpu=0.92,Vmaxpu=1.5,model=8,zipv=[0.5,0,0.5,1,0,0,0],daily=RES1_16,status=variable
new load.3000813156M1 bus1=RML1053522528.1.0,Phases=1,kv=0.127,kW=0.65472,pf=0.92,Vminpu=0.92,Vmaxpu=1.5,model=8,zipv=[0.5,0,0.5,1,0,0,0],daily=RES2_17,status=variable
new load.3000813157M1 bus1=RML1053522458.1.2.0,Phases=2,kv=0.22,kW=0.67174,pf=0.92,Vminpu=0.92,Vmaxpu=1.5,model=8,zipv=[0.5,0,0.5,1,0,0,0],daily=RES1_16,status=variable
new load.3000813158M1 bus1=RML1053522416.2.0,Phases=1,kv=0.127,kW=0.65952,pf=0.92,Vminpu=0.92,Vmaxpu=1.5,model=8,zipv=[0.5,0,0.5,1,0,0,0],daily=RES2_17,status=variable
new load.3000813159M1 bus1=RML1053522514.2.0,Phases=1,kv=0.127,kW=0.6162,pf=0.92,Vminpu=0.92,Vmaxpu=1.5,model=8,zipv=[0.5,0,0.5,1,0,0,0],daily=RES2_17,status=variable
new load.3000813160M1 bus1=RML1053522500.2.0,Phases=1,kv=0.127,kW=0.56806,pf=0.92,Vminpu=0.92,Vmaxpu=1.5,model=8,zipv=[0.5,0,0.5,1,0,0,0],daily=RES2_17,status=variable
new load.3000813161M1 bus1=RML1053522479.3.0,Phases=1,kv=0.127,kW=0.42846,pf=0.92,Vminpu=0.92,Vmaxpu=1.5,model=8,zipv=[0.5,0,0.5,1,0,0,0],daily=RES2_17,status=variable
new load.3000813162M1 bus1=RML1053522591.3.0,Phases=1,kv=0.127,kW=0.69322,pf=0.92,Vminpu=0.92,Vmaxpu=1.5,model=8,zipv=[0.5,0,0.5,1,0,0,0],daily=RES2_17,status=variable
new load.3000813163M1 bus1=RML1060957404.2.0,Phases=1,kv=0.127,kW=0.5563,pf=0.92,Vminpu=0.92,Vmaxpu=1.5,model=8,zipv=[0.5,0,0.5,1,0,0,0],daily=RES1_16,status=variable
new load.3000813165M1 bus1=RML1053522724.2.0,Phases=1,kv=0.127,kW=0.11546,pf=0.92,Vminpu=0.92,Vmaxpu=1.5,model=8,zipv=[0.5,0,0.5,1,0,0,0],daily=RES1_16,status=variable
new load.3000813166M1 bus1=RML1053522738.2.0,Phases=1,kv=0.127,kW=0.75572,pf=0.92,Vminpu=0.92,Vmaxpu=1.5,model=8,zipv=[0.5,0,0.5,1,0,0,0],daily=RES1_16,status=variable
...
